  Page 1                                    Sun Nov 30 13:46:45 2025

  ******************************************************************
  *                           E P A N E T                          *
  *                   Hydraulic and Water Quality                  *
  *                   Analysis for Pipe Networks                   *
  *                         Version 2.2                            *
  ******************************************************************
  
  Analysis begun Sun Nov 30 13:46:45 2025

  Analysis ended Sun Nov 30 13:46:45 2025
